2024_89_CemigReconfigurationCases/1_AlimsCemig/RBST335/RBST335CargaMT_Dez.dss
new load.3009000990M1 bus1=BMT102748326.1.2.3.0,Phases=3,kv=13.8,kW=12.69576,pf=0.92,Vminpu=0.93,Vmaxpu=1.5,model=8,zipv=[0.5,0,0.5,1,0,0,0],daily=A4-1,status=variable
new load.3009004303M1 bus1=BMT102748809.1.2.3.0,Phases=3,kv=13.8,kW=10.66312,pf=0.92,Vminpu=0.93,Vmaxpu=1.5,model=8,zipv=[0.5,0,0.5,1,0,0,0],daily=A4-3,status=variable
new load.3009015020M1 bus1=BMT102749124.1.2.3.0,Phases=3,kv=13.8,kW=25.20502,pf=0.92,Vminpu=0.93,Vmaxpu=1.5,model=8,zipv=[0.5,0,0.5,1,0,0,0],daily=A4-2,status=variable
new load.3009015565M1 bus1=BMT102746828.1.2.3.0,Phases=3,kv=13.8,kW=8.90012,pf=0.92,Vminpu=0.93,Vmaxpu=1.5,model=8,zipv=[0.5,0,0.5,1,0,0,0],daily=A4-1,status=variable
new load.3009020571M1 bus1=BMT150343226.1.2.3.0,Phases=3,kv=13.8,kW=38.90656,pf=0.92,Vminpu=0.93,Vmaxpu=1.5,model=8,zipv=[0.5,0,0.5,1,0,0,0],daily=A4-3,status=variable
new load.3009020862M1 bus1=BMT150341954.1.2.3.0,Phases=3,kv=13.8,kW=40.24468,pf=0.92,Vminpu=0.93,Vmaxpu=1.5,model=8,zipv=[0.5,0,0.5,1,0,0,0],daily=A4-3,status=variable
new load.3009021011M1 bus1=BMT111817834.1.2.3.0,Phases=3,kv=13.8,kW=17.01492,pf=0.92,Vminpu=0.93,Vmaxpu=1.5,model=8,zipv=[0.5,0,0.5,1,0,0,0],daily=A4-1,status=variable
new load.3010981460M1 bus1=BMT154520473.1.2.3.0,Phases=3,kv=13.8,kW=21.14168,pf=0.92,Vminpu=0.93,Vmaxpu=1.5,model=8,zipv=[0.5,0,0.5,1,0,0,0],daily=A4-3,status=variable
new load.3012200522M1 bus1=BMT102748613.1.2.3.0,Phases=3,kv=13.8,kW=14.79078,pf=0.92,Vminpu=0.93,Vmaxpu=1.5,model=8,zipv=[0.5,0,0.5,1,0,0,0],daily=A4-3,status=variable
new load.3012595106M1 bus1=BMT161873818.1.2.3.0,Phases=3,kv=13.8,kW=23.5492,pf=0.92,Vminpu=0.93,Vmaxpu=1.5,model=8,zipv=[0.5,0,0.5,1,0,0,0],daily=A4-2,status=variable
new load.3012986474M1 bus1=BMT169120366.1.2.3.0,Phases=3,kv=13.8,kW=33.48404,pf=0.92,Vminpu=0.93,Vmaxpu=1.5,model=8,zipv=[0.5,0,0.5,1,0,0,0],daily=A4-2,status=variable
new load.3013491475M1 bus1=BMT167536596.1.2.3.0,Phases=3,kv=13.8,kW=8.5147,pf=0.92,Vminpu=0.93,Vmaxpu=1.5,model=8,zipv=[0.5,0,0.5,1,0,0,0],daily=A4-4,status=variable
new load.3013542218M1 bus1=BMT166446702.1.2.3.0,Phases=3,kv=13.8,kW=8.37978,pf=0.92,Vminpu=0.93,Vmaxpu=1.5,model=8,zipv=[0.5,0,0.5,1,0,0,0],daily=A4-1,status=variable
new load.3013561994M1 bus1=BMT166446702.1.2.3.0,Phases=3,kv=13.8,kW=133.4844,pf=0.92,Vminpu=0.93,Vmaxpu=1.5,model=8,zipv=[0.5,0,0.5,1,0,0,0],daily=A4-4,status=variable
new load.3013589223M1 bus1=BMT163208806.1.2.3.0,Phases=3,kv=13.8,kW=6.43924,pf=0.92,Vminpu=0.93,Vmaxpu=1.5,model=8,zipv=[0.5,0,0.5,1,0,0,0],daily=A4-2,status=variable
